SCL-ADCIRC-Haiyan-Typhoon-Track-Surge-Model         ! 32 CHARACTER ALPHANUMERIC RUN DESCRIPTION
ADCIRC-V5-Mar3116                                   ! 24 CHARACTER ALPANUMERIC RUN IDENTIFICATION
1 1E5 1 1 1E5                                       ! NFOVER - NONFATAL ERROR OVERRIDE OPTION
0                                                   ! NABOUT - ABREVIATED OUTPUT OPTION PARAMETER
3600                                                ! NSCREEN - UNIT 6 OUTPUT OPTION PARAMETER
0                                                   ! IHOT - HOT START PARAMETER
2                                                   ! ICS - COORDINATE SYSTEM SELECTION PARAMETER
0                                                   ! IM - MODEL SELECTION PARAMETER
2                                                   ! NOLIBF - BOTTOM FRICTION TERM SELECTION PARAMETER
2                                                   ! NOLIFA - FINITE AMPLITUDE TERM SELECTION PARAMETER
1                                                   ! NOLICA - SPATIAL DERIVATIVE CONVECTIVE TERM SELECTION PARAMETER
1                                                   ! NOLICAT - TIME DERIVATIVE CONVECTIVE TERM SELECTION PARAMETER
4                                                   ! NWP - NODAL ATTRIBUTE PARAMETER
surface_canopy_coefficient
surface_directional_effective_roughness_length
primitive_weighting_in_continuity_equation
surface_submergence_state
1                                                   ! NCOR - VARIABLE CORIOLIS IN SPACE OPTION PARAMETER
1                                                   ! NTIP - TIDAL POTENTIAL OPTION PARAMETER
320                                                 ! NWS - WIND STRESS AND BAROMETRIC PRESSURE OPTION PARAMETER
1                                                   ! NRAMP - RAMP FUNCTION OPTION
9.81                                                ! G - ACCELERATION DUE TO GRAVITY - DETERMINES UNITS
-3                                                  ! TAU0 - WEIGHTING FACTOR IN GWCE
1                                                   ! DT - TIME STEP (IN SECONDS)
0.00                                                ! STATIM - STARTING TIME (IN DAYS)
0.00                                                ! REFTIM - REFERENCE TIME (IN DAYS)
2013 11 04 06 01 0.9 1 3600                         ! YYYY MM DD HH24 StormNumber BLAdjustmentFactor GeoFactor RSTIMINC
4.0                                                 ! RNDAY - TOTAL LENGTH OF SIMULATION (IN DAYS)
2.0                                                 ! DRAMP - DURATION OF RAMP FUNCTION
0.35 0.30 0.35                                      ! A00 B00 C00 - TIME WEIGHING FACTORS IN GWCE
0.10 2 2 0.01                                       ! H0 - MIMINMUM CUTOFF DEPTH
125.072828913834201 11.234232100134257              ! SLAM0, SFEA0 - center lon and lat for CPP
0.0030 2 10 0.3333                                  ! TAU - BOTTOM FRICTION COEFFICIENT
20.0                                                ! ESLM - LATERAL EDDY VISCOSITY COEFFICIENT; IGNORED IF NWP =1
3.0314E-5                                           ! CORI - CORIOLIS PARAMETER - IGNORED IF NCOR = 1
8
K1
0.250697 0.00007292115082 0.736 0.91241 49.74
O1
0.178106 0.00006759775189 0.695 0.85604 105.84
P1
0.083096 0.00007252295351 0.706 1.00000 136.35
Q1
0.034100 0.00006495855726 0.695 0.85704 157.53
N2
0.206832 0.00013787970749 0.693 1.03006 210.49
M2
1.080280 0.00014051890274 0.693 1.03006 158.80
S2
0.503882 0.00014544410433 0.693 1.00000 180.00
K2
0.136873 0.00014584230170 0.693 0.79713 278.64
13
K1
0.00007292115082 0.91241 49.74
O1
0.00006759775189 0.85604 105.84
P1
0.00007252295351 1.00000 136.35
Q1
0.00006495855726 0.85704 157.53
N2
0.00013787970749 1.03006 210.49
M2
0.00014051890274 1.03006 158.80
S2
0.00014544410433 1.00000 180.00
K2
0.00014584230170 0.79713 278.64
M4
0.00028103780543 1.06102 317.60
MS4
0.00028596300703 1.03006 338.80
MN4
0.00027839861022 1.06102 9.30
MM
0.00000263919520 1.10388 308.31
MF
0.00000532339895 0.71235 127.13
K1
0.1017 200.2880
0.1017 200.2877
0.1017 200.2874
0.1017 200.2870
0.1017 200.2865
0.1017 200.2859
0.1017 200.2853
0.1017 200.2846
0.1017 200.2838
0.1017 200.2829
0.1017 200.2818
0.1016 200.2807
0.1016 200.2794
0.1016 200.2781
0.1016 200.2767
0.1016 200.2753
0.1016 200.2742
0.1016 200.2744
0.1016 200.2746
0.1019 200.3055
0.1020 200.3108
0.1021 200.3245
0.1024 200.3417
0.1025 200.3557
0.1027 200.3673
0.1028 200.3768
0.1029 200.3847
0.1029 200.3912
0.1030 200.3966
0.1031 200.4010
0.1031 200.4048
0.1031 200.4081
0.1032 200.4106
0.1032 200.4126
0.1032 200.4142
0.1052 200.5752
0.1058 200.6230
0.1069 200.7170
0.1072 200.7397
0.1160 201.3685
0.1166 201.4085
0.1169 201.4283
0.1200 201.6212
0.1230 201.8048
0.1233 201.8227
0.1236 201.8404
0.1239 201.8581
0.1242 201.8758
0.1245 201.8933
0.1254 201.9454
0.1257 201.9626
0.1260 201.9797
0.1267 202.0137
0.1270 202.0306
0.1273 202.0474
0.1279 202.0808
0.1282 202.0973
0.1291 202.1466
0.1294 202.1629
0.1297 202.1790
0.1446 202.8987
0.1442 202.8827
0.1439 202.8665
0.1435 202.8503
0.1431 202.8339
0.1427 202.8175
0.1423 202.8010
0.1420 202.7844
0.1416 202.7678
0.1412 202.7510
0.1408 202.7341
0.1405 202.7172
0.1401 202.7002
0.1397 202.6830
0.1393 202.6658
0.1389 202.6485
0.1386 202.6311
0.1382 202.6135
0.1378 202.5959
0.1374 202.5782
0.1371 202.5604
0.1367 202.5425
0.1352 202.4706
0.1348 202.4524
0.1341 202.4157
O1
0.1332 155.7637
0.1332 155.7633
0.1332 155.7628
0.1332 155.7623
0.1332 155.7617
0.1332 155.7610
0.1332 155.7602
0.1332 155.7592
0.1332 155.7582
0.1332 155.7570
0.1332 155.7557
0.1332 155.7542
0.1332 155.7525
0.1332 155.7508
0.1331 155.7490
0.1331 155.7472
0.1331 155.7458
0.1331 155.7458
0.1331 155.7459
0.1334 155.7864
0.1334 155.7933
0.1335 155.8111
0.1337 155.8335
0.1338 155.8519
0.1339 155.8670
0.1339 155.8795
0.1340 155.8898
0.1340 155.8983
0.1341 155.9054
0.1341 155.9113
0.1342 155.9163
0.1342 155.9206
0.1342 155.9239
0.1342 155.9265
0.1342 155.9286
0.1355 156.1424
0.1359 156.2066
0.1367 156.3340
0.1369 156.3649
0.1428 157.2555
0.1432 157.3143
0.1434 157.3436
0.1455 157.6322
0.1475 157.9131
0.1478 157.9408
0.1480 157.9684
0.1482 157.9959
0.1484 158.0234
0.1486 158.0508
0.1492 158.1325
0.1494 158.1596
0.1496 158.1866
0.1500 158.2404
0.1502 158.2673
0.1504 158.2940
0.1508 158.3473
0.1511 158.3738
0.1517 158.4530
0.1519 158.4793
0.1521 158.5055
0.1622 159.7101
0.1620 159.6817
0.1617 159.6531
0.1615 159.6245
0.1612 159.5958
0.1609 159.5669
0.1607 159.5380
0.1604 159.5090
0.1602 159.4799
0.1599 159.4507
0.1597 159.4214
0.1594 159.3920
0.1591 159.3625
0.1589 159.3330
0.1586 159.3033
0.1584 159.2735
0.1581 159.2436
0.1579 159.2137
0.1576 159.1836
0.1573 159.1534
0.1571 159.1232
0.1568 159.0928
0.1558 158.9716
0.1556 158.9410
0.1551 158.8796
P1
0.0370 181.2726
0.0370 181.2717
0.0370 181.2706
0.0370 181.2694
0.0370 181.2679
0.0369 181.2662
0.0369 181.2643
0.0369 181.2621
0.0369 181.2596
0.0369 181.2568
0.0369 181.2537
0.0369 181.2502
0.0369 181.2463
0.0369 181.2422
0.0369 181.2379
0.0369 181.2335
0.0369 181.2302
0.0369 181.2305
0.0369 181.2307
0.0370 181.3263
0.0370 181.3428
0.0371 181.3847
0.0371 181.4376
0.0372 181.4809
0.0372 181.5165
0.0373 181.5458
0.0373 181.5700
0.0373 181.5901
0.0373 181.6067
0.0373 181.6205
0.0374 181.6322
0.0374 181.6423
0.0374 181.6501
0.0374 181.6562
0.0374 181.6613
0.0379 182.1601
0.0381 182.3090
0.0385 182.6028
0.0386 182.6739
0.0411 184.6731
0.0413 184.8020
0.0414 184.8661
0.0423 185.4919
0.0432 186.0922
0.0433 186.1509
0.0434 186.2093
0.0435 186.2675
0.0436 186.3255
0.0437 186.3832
0.0439 186.5550
0.0440 186.6118
0.0441 186.6684
0.0443 186.7808
0.0444 186.8367
0.0445 186.8924
0.0447 187.0030
0.0448 187.0580
0.0450 187.2217
0.0451 187.2758
0.0452 187.3298
0.0498 189.7192
0.0497 189.6641
0.0496 189.6088
0.0494 189.5532
0.0493 189.4974
0.0492 189.4413
0.0491 189.3849
0.0490 189.3283
0.0489 189.2714
0.0487 189.2142
0.0486 189.1567
0.0485 189.0990
0.0484 189.0409
0.0483 188.9826
0.0482 188.9241
0.0480 188.8652
0.0479 188.8060
0.0478 188.7466
0.0477 188.6869
0.0476 188.6268
0.0475 188.5665
0.0473 188.5059
0.0469 188.2630
0.0468 188.2015
0.0466 188.0776
Q1
0.0278 136.3539
0.0278 136.3534
0.0278 136.3529
0.0278 136.3522
0.0278 136.3515
0.0278 136.3507
0.0278 136.3497
0.0278 136.3486
0.0278 136.3473
0.0278 136.3459
0.0278 136.3443
0.0278 136.3425
0.0278 136.3406
0.0278 136.3385
0.0278 136.3364
0.0278 136.3342
0.0278 136.3325
0.0278 136.3325
0.0278 136.3325
0.0279 136.3810
0.0279 136.3893
0.0279 136.4105
0.0279 136.4373
0.0279 136.4592
0.0279 136.4773
0.0280 136.4922
0.0280 136.5045
0.0280 136.5147
0.0280 136.5232
0.0280 136.5302
0.0280 136.5362
0.0280 136.5413
0.0280 136.5453
0.0280 136.5484
0.0280 136.5510
0.0282 136.8070
0.0283 136.8842
0.0284 137.0373
0.0285 137.0745
0.0295 138.1533
0.0296 138.2250
0.0296 138.2608
0.0300 138.6137
0.0304 138.9587
0.0304 138.9928
0.0304 139.0268
0.0305 139.0607
0.0305 139.0945
0.0305 139.1282
0.0306 139.2291
0.0307 139.2625
0.0307 139.2959
0.0308 139.3624
0.0308 139.3956
0.0309 139.4286
0.0309 139.4946
0.0310 139.5274
0.0311 139.6255
0.0311 139.6581
0.0312 139.6906
0.0330 141.1906
0.0329 141.1547
0.0329 141.1186
0.0328 141.0825
0.0328 141.0463
0.0327 141.0100
0.0327 140.9736
0.0326 140.9371
0.0326 140.9005
0.0326 140.8637
0.0325 140.8269
0.0325 140.7900
0.0324 140.7529
0.0324 140.7158
0.0323 140.6785
0.0323 140.6412
0.0322 140.6037
0.0322 140.5661
0.0321 140.5284
0.0321 140.4906
0.0320 140.4527
0.0320 140.4147
0.0318 140.2631
0.0318 140.2249
0.0317 140.1483
N2
0.0423 289.8989
0.0423 289.8980
0.0423 289.8969
0.0423 289.8956
0.0423 289.8942
0.0423 289.8925
0.0423 289.8906
0.0423 289.8883
0.0423 289.8858
0.0423 289.8830
0.0424 289.8799
0.0424 289.8763
0.0424 289.8725
0.0424 289.8684
0.0424 289.8640
0.0424 289.8597
0.0424 289.8563
0.0424 289.8561
0.0424 289.8557
0.0422 289.9532
0.0422 289.9699
0.0421 290.0128
0.0420 290.0672
0.0419 290.1121
0.0418 290.1492
0.0417 290.1800
0.0417 290.2055
0.0416 290.2268
0.0416 290.2444
0.0416 290.2591
0.0415 290.2716
0.0415 290.2824
0.0415 290.2906
0.0415 290.2972
0.0415 290.3026
0.0404 290.8603
0.0400 291.0361
0.0394 291.3968
0.0392 291.4868
0.0344 294.5931
0.0340 294.8403
0.0339 294.9657
0.0322 296.2917
0.0306 297.7613
0.0304 297.9170
0.0303 298.0743
0.0301 298.2334
0.0299 298.3942
0.0298 298.5568
0.0293 299.0553
0.0291 299.2252
0.0290 299.3969
0.0287 299.7462
0.0285 299.9239
0.0283 300.1035
0.0280 300.4689
0.0279 300.6547
0.0274 301.2252
0.0272 301.4198
0.0271 301.6167
0.0200 314.8942
0.0201 314.4470
0.0203 314.0070
0.0205 313.5740
0.0206 313.1480
0.0208 312.7287
0.0210 312.3162
0.0211 311.9102
0.0213 311.5106
0.0215 311.1174
0.0216 310.7304
0.0218 310.3496
0.0220 309.9747
0.0222 309.6057
0.0223 309.2425
0.0225 308.8850
0.0227 308.5331
0.0229 308.1866
0.0230 307.8455
0.0232 307.5096
0.0234 307.1790
0.0236 306.8534
0.0243 305.6122
0.0245 305.3134
0.0249 304.7291
M2
0.2124 295.3298
0.2124 295.3290
0.2124 295.3282
0.2124 295.3272
0.2124 295.3261
0.2124 295.3248
0.2125 295.3233
0.2125 295.3216
0.2125 295.3196
0.2126 295.3175
0.2126 295.3150
0.2127 295.3123
0.2127 295.3093
0.2128 295.3061
0.2128 295.3027
0.2129 295.2994
0.2129 295.2968
0.2129 295.2967
0.2129 295.2966
0.2116 295.3719
0.2114 295.3849
0.2108 295.4183
0.2101 295.4606
0.2095 295.4956
0.2090 295.5246
0.2086 295.5487
0.2083 295.5687
0.2080 295.5853
0.2078 295.5991
0.2076 295.6106
0.2074 295.6204
0.2073 295.6288
0.2072 295.6353
0.2071 295.6404
0.2070 295.6447
0.2000 296.0856
0.1978 296.2260
0.1935 296.5163
0.1925 296.5892
0.1612 299.2248
0.1590 299.4451
0.1579 299.5576
0.1472 300.7730
0.1366 302.1801
0.1355 302.3331
0.1345 302.4885
0.1334 302.6463
0.1324 302.8067
0.1313 302.9697
0.1281 303.4750
0.1271 303.6491
0.1260 303.8261
0.1239 304.1891
0.1229 304.3753
0.1218 304.5647
0.1197 304.9535
0.1187 305.1531
0.1156 305.7736
0.1145 305.9880
0.1135 306.2063
0.0662 324.9665
0.0673 324.1805
0.0683 323.4186
0.0694 322.6800
0.0705 321.9640
0.0716 321.2696
0.0727 320.5961
0.0738 319.9429
0.0749 319.3090
0.0760 318.6939
0.0772 318.0969
0.0783 317.5172
0.0795 316.9543
0.0806 316.4075
0.0818 315.8763
0.0830 315.3601
0.0841 314.8583
0.0853 314.3704
0.0865 313.8960
0.0877 313.4344
0.0889 312.9854
0.0901 312.5484
0.0950 310.9280
0.0962 310.5484
0.0987 309.8176
S2
0.0490 336.4331
0.0490 336.4323
0.0490 336.4314
0.0490 336.4304
0.0491 336.4292
0.0491 336.4278
0.0491 336.4263
0.0491 336.4245
0.0491 336.4224
0.0491 336.4201
0.0492 336.4176
0.0492 336.4147
0.0492 336.4116
0.0492 336.4082
0.0493 336.4047
0.0493 336.4012
0.0493 336.3987
0.0493 336.4002
0.0493 336.4017
0.0487 336.4776
0.0485 336.4914
0.0483 336.5269
0.0479 336.5724
0.0476 336.6103
0.0473 336.6419
0.0471 336.6682
0.0470 336.6901
0.0468 336.7084
0.0467 336.7237
0.0466 336.7365
0.0465 336.7474
0.0465 336.7568
0.0464 336.7640
0.0464 336.7697
0.0463 336.7745
0.0428 337.2898
0.0417 337.4639
0.0396 337.8406
0.0391 337.9389
0.0234 342.9564
0.0223 343.5627
0.0218 343.8882
0.0165 348.3046
0.0114 356.8070
0.0109 358.0925
0.0104 359.4992
0.0099 1.0431
0.0094 2.7427
0.0090 4.6193
0.0077 11.5726
0.0072 14.4356
0.0069 17.6306
0.0062 25.1649
0.0059 29.5676
0.0056 34.4174
0.0052 45.3935
0.0051 51.4040
0.0051 70.1271
0.0052 76.1210
0.0054 81.7865
0.0295 140.8776
0.0289 140.6498
0.0282 140.4110
0.0275 140.1606
0.0268 139.8976
0.0262 139.6211
0.0255 139.3301
0.0248 139.0233
0.0242 138.6995
0.0235 138.3572
0.0228 137.9949
0.0222 137.6108
0.0215 137.2029
0.0208 136.7689
0.0202 136.3063
0.0195 135.8122
0.0188 135.2835
0.0182 134.7164
0.0175 134.1067
0.0169 133.4496
0.0162 132.7395
0.0156 131.9701
0.0130 128.1756
0.0124 126.9860
0.0112 124.2121
K2
0.0109 333.9218
0.0109 333.9213
0.0109 333.9207
0.0109 333.9200
0.0109 333.9191
0.0109 333.9182
0.0109 333.9170
0.0109 333.9158
0.0109 333.9143
0.0109 333.9127
0.0109 333.9109
0.0109 333.9089
0.0110 333.9067
0.0110 333.9043
0.0110 333.9019
0.0110 333.8994
0.0110 333.8977
0.0110 333.8986
0.0110 333.8995
0.0108 333.9533
0.0107 333.9631
0.0107 333.9884
0.0105 334.0211
0.0104 334.0484
0.0104 334.0713
0.0103 334.0904
0.0102 334.1065
0.0102 334.1199
0.0102 334.1311
0.0101 334.1405
0.0101 334.1486
0.0101 334.1555
0.0101 334.1609
0.0101 334.1651
0.0100 334.1687
0.0089 334.5660
0.0086 334.7076
0.0079 335.0278
0.0077 335.1146
0.0027 342.7101
0.0024 344.4062
0.0022 345.4493
0.0007 24.9076
0.0015 128.6538
0.0016 131.0127
0.0018 132.9368
0.0019 134.5329
0.0021 135.8763
0.0023 137.0214
0.0028 139.6215
0.0030 140.2885
0.0031 140.8827
0.0035 141.8948
0.0037 142.3294
0.0038 142.7247
0.0042 143.4171
0.0043 143.7219
0.0049 144.5063
0.0050 144.7317
0.0052 144.9422
0.0138 148.8266
0.0136 148.7918
0.0134 148.7559
0.0132 148.7187
0.0129 148.6804
0.0127 148.6407
0.0125 148.5996
0.0123 148.5571
0.0121 148.5131
0.0119 148.4675
0.0116 148.4202
0.0114 148.3711
0.0112 148.3201
0.0110 148.2670
0.0108 148.2119
0.0106 148.1545
0.0103 148.0947
0.0101 148.0323
0.0099 147.9672
0.0097 147.8992
0.0095 147.8281
0.0093 147.7537
0.0084 147.4214
0.0082 147.3275
0.0078 147.1241
M4
0.0182 32.3807
0.0182 32.3810
0.0182 32.3814
0.0182 32.3817
0.0182 32.3822
0.0182 32.3827
0.0182 32.3833
0.0182 32.3840
0.0182 32.3848
0.0182 32.3857
0.0182 32.3867
0.0182 32.3878
0.0182 32.3890
0.0182 32.3903
0.0182 32.3917
0.0182 32.3930
0.0183 32.3917
0.0182 32.3772
0.0182 32.3600
0.0182 32.3637
0.0182 32.3584
0.0182 32.3450
0.0181 32.3280
0.0181 32.3140
0.0181 32.3024
0.0181 32.2928
0.0180 32.2849
0.0180 32.2783
0.0180 32.2728
0.0180 32.2683
0.0180 32.2644
0.0180 32.2610
0.0180 32.2585
0.0180 32.2564
0.0180 32.2547
0.0177 32.0837
0.0176 32.0304
0.0174 31.9222
0.0174 31.8954
0.0160 31.0173
0.0159 30.9511
0.0159 30.9177
0.0154 30.5720
0.0149 30.2039
0.0149 30.1658
0.0148 30.1275
0.0148 30.0889
0.0147 30.0500
0.0147 30.0109
0.0145 29.8920
0.0145 29.8519
0.0144 29.8114
0.0143 29.7298
0.0143 29.6885
0.0143 29.6470
0.0142 29.5631
0.0141 29.5208
0.0140 29.3919
0.0139 29.3484
0.0139 29.3046
0.0116 26.8711
0.0117 26.9475
0.0117 27.0232
0.0118 27.0982
0.0119 27.1724
0.0119 27.2460
0.0120 27.3188
0.0120 27.3909
0.0121 27.4623
0.0122 27.5331
0.0122 27.6032
0.0123 27.6726
0.0123 27.7414
0.0124 27.8095
0.0124 27.8771
0.0125 27.9439
0.0126 28.0102
0.0126 28.0759
0.0127 28.1410
0.0127 28.2054
0.0128 28.2693
0.0128 28.3326
0.0131 28.5778
0.0131 28.6378
0.0133 28.7562
MS4
0.0146 85.6990
0.0146 85.6991
0.0146 85.6992
0.0146 85.6993
0.0146 85.6994
0.0146 85.6995
0.0146 85.6997
0.0146 85.6998
0.0146 85.7000
0.0146 85.7002
0.0146 85.7005
0.0146 85.7007
0.0146 85.7010
0.0146 85.7013
0.0146 85.7017
0.0146 85.7020
0.0146 85.7005
0.0146 85.6902
0.0146 85.6789
0.0145 85.6949
0.0145 85.6937
0.0145 85.6905
0.0145 85.6864
0.0144 85.6830
0.0144 85.6802
0.0144 85.6779
0.0144 85.6760
0.0144 85.6744
0.0144 85.6731
0.0144 85.6720
0.0143 85.6711
0.0143 85.6703
0.0143 85.6696
0.0143 85.6691
0.0143 85.6687
0.0140 85.6273
0.0139 85.6144
0.0138 85.5880
0.0137 85.5814
0.0124 85.3624
0.0123 85.3456
0.0123 85.3370
0.0118 85.2481
0.0114 85.1520
0.0113 85.1420
0.0113 85.1319
0.0112 85.1216
0.0112 85.1114
0.0111 85.1010
0.0110 85.0693
0.0110 85.0586
0.0109 85.0478
0.0108 85.0258
0.0108 85.0147
0.0107 85.0035
0.0106 84.9808
0.0106 84.9694
0.0105 84.9343
0.0104 84.9224
0.0104 84.9104
0.0082 84.2718
0.0083 84.2948
0.0083 84.3174
0.0084 84.3397
0.0084 84.3617
0.0085 84.3835
0.0085 84.4049
0.0086 84.4261
0.0086 84.4470
0.0087 84.4676
0.0088 84.4879
0.0088 84.5080
0.0089 84.5279
0.0089 84.5475
0.0090 84.5668
0.0090 84.5859
0.0091 84.6048
0.0092 84.6234
0.0092 84.6418
0.0093 84.6600
0.0093 84.6780
0.0094 84.6957
0.0096 84.7639
0.0097 84.7805
0.0098 84.8131
MN4
0.0030 25.7376
0.0030 25.7382
0.0030 25.7388
0.0030 25.7395
0.0030 25.7403
0.0030 25.7413
0.0030 25.7424
0.0030 25.7436
0.0030 25.7451
0.0030 25.7466
0.0030 25.7484
0.0030 25.7504
0.0030 25.7526
0.0030 25.7550
0.0030 25.7574
0.0030 25.7599
0.0030 25.7596
0.0030 25.7456
0.0030 25.7278
0.0030 25.7068
0.0030 25.6973
0.0030 25.6730
0.0029 25.6421
0.0029 25.6167
0.0029 25.5956
0.0029 25.5782
0.0029 25.5637
0.0029 25.5517
0.0029 25.5417
0.0029 25.5334
0.0029 25.5263
0.0029 25.5202
0.0029 25.5156
0.0029 25.5118
0.0029 25.5088
0.0028 25.1939
0.0028 25.0949
0.0028 24.8922
0.0028 24.8417
0.0025 23.1194
0.0024 22.9839
0.0024 22.9152
0.0023 22.1922
0.0022 21.3969
0.0022 21.3130
0.0022 21.2283
0.0022 21.1427
0.0022 21.0562
0.0022 20.9689
0.0021 20.7014
0.0021 20.6104
0.0021 20.5185
0.0021 20.3317
0.0021 20.2368
0.0021 20.1409
0.0020 19.9460
0.0020 19.8470
0.0020 19.5435
0.0020 19.4401
0.0020 19.3356
0.0015 12.8062
0.0015 13.0356
0.0015 13.2611
0.0015 13.4828
0.0015 13.7008
0.0015 13.9151
0.0015 14.1260
0.0016 14.3333
0.0016 14.5373
0.0016 14.7380
0.0016 14.9354
0.0016 15.1297
0.0016 15.3209
0.0016 15.5091
0.0016 15.6943
0.0017 15.8767
0.0017 16.0562
0.0017 16.2330
0.0017 16.4071
0.0017 16.5785
0.0017 16.7473
0.0017 16.9136
0.0018 17.5483
0.0018 17.7013
0.0018 18.0007
MM
0.0066 18.3771
0.0066 18.3772
0.0066 18.3772
0.0066 18.3773
0.0066 18.3773
0.0066 18.3774
0.0066 18.3775
0.0066 18.3776
0.0066 18.3777
0.0066 18.3778
0.0066 18.3780
0.0066 18.3782
0.0066 18.3783
0.0066 18.3785
0.0066 18.3787
0.0066 18.3789
0.0066 18.3790
0.0066 18.3784
0.0066 18.3776
0.0066 18.3746
0.0066 18.3738
0.0066 18.3719
0.0066 18.3694
0.0066 18.3674
0.0066 18.3657
0.0066 18.3643
0.0066 18.3632
0.0066 18.3622
0.0066 18.3614
0.0066 18.3608
0.0066 18.3602
0.0066 18.3597
0.0066 18.3594
0.0066 18.3591
0.0066 18.3588
0.0066 18.3347
0.0066 18.3274
0.0066 18.3127
0.0066 18.3091
0.0066 18.2011
0.0066 18.1937
0.0066 18.1899
0.0066 18.1526
0.0066 18.1152
0.0066 18.1114
0.0066 18.1077
0.0066 18.1039
0.0066 18.1002
0.0066 18.0964
0.0066 18.0852
0.0066 18.0814
0.0066 18.0777
0.0066 18.0702
0.0066 18.0664
0.0066 18.0627
0.0066 18.0552
0.0066 18.0514
0.0066 18.0402
0.0066 18.0364
0.0065 18.0326
0.0065 17.8425
0.0065 17.8472
0.0065 17.8519
0.0065 17.8565
0.0065 17.8612
0.0065 17.8658
0.0065 17.8705
0.0065 17.8752
0.0065 17.8798
0.0065 17.8845
0.0065 17.8892
0.0065 17.8938
0.0065 17.8985
0.0065 17.9031
0.0065 17.9078
0.0065 17.9125
0.0065 17.9171
0.0065 17.9218
0.0065 17.9265
0.0065 17.9311
0.0065 17.9358
0.0065 17.9404
0.0065 17.9589
0.0065 17.9635
0.0065 17.9728
MF
0.0103 27.8041
0.0103 27.8042
0.0103 27.8043
0.0103 27.8044
0.0103 27.8045
0.0103 27.8047
0.0103 27.8049
0.0103 27.8051
0.0103 27.8054
0.0103 27.8056
0.0103 27.8059
0.0103 27.8063
0.0103 27.8067
0.0103 27.8071
0.0103 27.8075
0.0103 27.8079
0.0103 27.8081
0.0103 27.8069
0.0103 27.8054
0.0103 27.7988
0.0103 27.7972
0.0103 27.7930
0.0103 27.7877
0.0103 27.7834
0.0103 27.7799
0.0103 27.7770
0.0103 27.7745
0.0103 27.7725
0.0103 27.7708
0.0103 27.7695
0.0103 27.7683
0.0103 27.7673
0.0103 27.7665
0.0103 27.7659
0.0103 27.7654
0.0103 27.7143
0.0103 27.6988
0.0103 27.6677
0.0103 27.6601
0.0103 27.4313
0.0103 27.4154
0.0103 27.4075
0.0103 27.3284
0.0103 27.2491
0.0103 27.2411
0.0103 27.2332
0.0103 27.2253
0.0103 27.2173
0.0103 27.2094
0.0103 27.1856
0.0103 27.1776
0.0103 27.1697
0.0103 27.1538
0.0103 27.1458
0.0103 27.1379
0.0103 27.1220
0.0103 27.1140
0.0103 27.0901
0.0103 27.0822
0.0103 27.0742
0.0103 26.6724
0.0103 26.6823
0.0103 26.6921
0.0103 26.7020
0.0103 26.7119
0.0103 26.7218
0.0103 26.7317
0.0103 26.7415
0.0103 26.7514
0.0103 26.7613
0.0103 26.7712
0.0103 26.7810
0.0103 26.7909
0.0103 26.8008
0.0103 26.8107
0.0103 26.8205
0.0103 26.8304
0.0103 26.8403
0.0103 26.8502
0.0103 26.8601
0.0103 26.8699
0.0103 26.8798
0.0103 26.9189
0.0103 26.9287
0.0103 26.9482
45.0                                                 ! ANGINN : INNER ANGLE THRESHOLD
1 0.0 4.0 300                                        ! NOUTE,TOUTSE,TOUTFE,NSPOOLE:ELEV STATION OUTPUT INFO (UNIT  61)
22                                                   ! TOTAL NUMBER OF ELEVATION RECORDING STATIONS
125.0015 11.2434 6
125.0096 11.2457 3
125.0095 11.2463 2
125.0088 11.2468 3
125.0070 11.2487 1.9
125.0051 11.2394 2.8
124.9961 11.2469 3.91
125.0057 11.2385 5.6
125.0001 11.2437 2.5
125.0027 11.2241 4
125.0037 11.2315 2.8
125.0038 11.2249 3.6
125.0040 11.2307 2.8
125.0037 11.2293 3.1
125.0251 11.2115 4.1
125.0264 11.2081 2.7
125.0102 11.2067 1.4
125.0154 11.2096 2.4
124.9905 11.2530 0.27
125.0218 11.2176 2.9
124.9906 11.2553 4
125.0065615 11.2343903 1.0
0 0.0 4.0 30                                        ! NOUTV,TOUTSV,TOUTFV,NSPOOLV:VEL STATION OUTPUT INFO (UNIT  62)
0                                                   ! TOTAL NUMBER OF VELOCITY RECORDING STATIONS
0 0.0 4.0 30                                        ! NOUTM, TOUTSC, TOUTFC, NSPOOLC : MET STATION OUTPUT INFO (UNIT 71&72)
0                                                   ! NSTAM : NUMBER OF METEOROLOGICAL RECORDING STATIONS
1 0.0 4.0 300                                        ! NOUTGE,TOUTSGE,TOUTFGE,NSPOOLGE : GLOBAL ELEVATION OUTPUT INFO (UNIT  63)
1 0.0 4.0 300                                        ! NOUTGV,TOUTSGV,TOUTFGV,NSPOOLGV : GLOBAL VELOCITY  OUTPUT INFO (UNIT  64)
1 0.0 4.0 300                                        ! NOUTGW,TOUTSGW,TOUTFGW,NSPOOLGW : GLOBAL WIND STRESS/PRESSURE  OUTPUT INFO (UNIT  73&74)
0                                                   ! NFREQ - NUMBER OF CONSTITUENTS TO BE INCLUDED IN THE HARMONIC ANALYSIS
0.0 5.0 1 1                                         ! THAS,THAF,NHAINC,FMV - HARMONIC ANALYSIS PARAMETERS
0 0 0 0                                             ! NHASE,NHASV,NHAGE,NHAGV - CONTROL HARMONIC ANALYSIS AND OUTPUT TO UNITS 51,52,53,54
0 0                                                 ! NHSTAR,NHSINC - HOT START FILE GENERATION PARAMETERS
1 0 1.5E-5 15                                       ! ITITER,ISLDIA,CONVCR,ITMAX - ALGEBRAIC SOLUTION PARAMETERS
&metControl WindDragLimit=0.003 DragLawString='Powell' /
&inundationOutputControl inundationOutput=true, inunThresh=0.05 /
